# Packages
 &PACKAGES
 useDiagnostics = .TRUE., 
 useShelfIce=.true.,
 useIcefront=.false.,
 useMNC=.false.,
 useOBCS=.false.,
 useGMRedi=.false.,
 useKPP   =.false.,
 useRBCS=.true., 
 useMY82=.false.,
 usePP81=.true.,
/
