# Packages
 &PACKAGES
 useDiagnostics=.TRUE.,
 useRBCs=.TRUE.,
 usePP81=.TRUE.,
 useShelfIce=.TRUE.,
 &
